CRYSTAL
PRIMVEC
10.5   0.0   0.0
0.0   10.5   0.0
0.0   0.0   10.5
PRIMCOORD
378 1
10   0.0   0.0   0.0
10   0.0   1.75   1.75
10   1.75   1.75   0.0
10   1.75   0.0   1.75
10   3.5   1.75   1.75
10   1.75   1.75   3.5
10   1.75   3.5   1.75
10   3.5   0.0   0.0
10   0.0   3.5   0.0
10   0.0   0.0   3.5
10   3.5   3.5   0.0
10   0.0   3.5   3.5
10   3.5   0.0   3.5
10   3.5   3.5   3.5
10   0.0   0.0   3.5
10   0.0   1.75   5.25
10   1.75   1.75   3.5
10   1.75   0.0   5.25
10   3.5   1.75   5.25
10   1.75   1.75   7.0
10   1.75   3.5   5.25
10   3.5   0.0   3.5
10   0.0   3.5   3.5
10   0.0   0.0   7.0
10   3.5   3.5   3.5
10   0.0   3.5   7.0
10   3.5   0.0   7.0
10   3.5   3.5   7.0
10   0.0   0.0   7.0
10   0.0   1.75   8.75
10   1.75   1.75   7.0
10   1.75   0.0   8.75
10   3.5   1.75   8.75
10   1.75   1.75   10.5
10   1.75   3.5   8.75
10   3.5   0.0   7.0
10   0.0   3.5   7.0
10   0.0   0.0   10.5
10   3.5   3.5   7.0
10   0.0   3.5   10.5
10   3.5   0.0   10.5
10   3.5   3.5   10.5
10   0.0   3.5   0.0
10   0.0   5.25   1.75
10   1.75   5.25   0.0
10   1.75   3.5   1.75
10   3.5   5.25   1.75
10   1.75   5.25   3.5
10   1.75   7.0   1.75
10   3.5   3.5   0.0
10   0.0   7.0   0.0
10   0.0   3.5   3.5
10   3.5   7.0   0.0
10   0.0   7.0   3.5
10   3.5   3.5   3.5
10   3.5   7.0   3.5
10   0.0   3.5   3.5
10   0.0   5.25   5.25
10   1.75   5.25   3.5
10   1.75   3.5   5.25
10   3.5   5.25   5.25
10   1.75   5.25   7.0
10   1.75   7.0   5.25
10   3.5   3.5   3.5
10   0.0   7.0   3.5
10   0.0   3.5   7.0
10   3.5   7.0   3.5
10   0.0   7.0   7.0
10   3.5   3.5   7.0
10   3.5   7.0   7.0
10   0.0   3.5   7.0
10   0.0   5.25   8.75
10   1.75   5.25   7.0
10   1.75   3.5   8.75
10   3.5   5.25   8.75
10   1.75   5.25   10.5
10   1.75   7.0   8.75
10   3.5   3.5   7.0
10   0.0   7.0   7.0
10   0.0   3.5   10.5
10   3.5   7.0   7.0
10   0.0   7.0   10.5
10   3.5   3.5   10.5
10   3.5   7.0   10.5
10   0.0   7.0   0.0
10   0.0   8.75   1.75
10   1.75   8.75   0.0
10   1.75   7.0   1.75
10   3.5   8.75   1.75
10   1.75   8.75   3.5
10   1.75   10.5   1.75
10   3.5   7.0   0.0
10   0.0   10.5   0.0
10   0.0   7.0   3.5
10   3.5   10.5   0.0
10   0.0   10.5   3.5
10   3.5   7.0   3.5
10   3.5   10.5   3.5
10   0.0   7.0   3.5
10   0.0   8.75   5.25
10   1.75   8.75   3.5
10   1.75   7.0   5.25
10   3.5   8.75   5.25
10   1.75   8.75   7.0
10   1.75   10.5   5.25
10   3.5   7.0   3.5
10   0.0   10.5   3.5
10   0.0   7.0   7.0
10   3.5   10.5   3.5
10   0.0   10.5   7.0
10   3.5   7.0   7.0
10   3.5   10.5   7.0
10   0.0   7.0   7.0
10   0.0   8.75   8.75
10   1.75   8.75   7.0
10   1.75   7.0   8.75
10   3.5   8.75   8.75
10   1.75   8.75   10.5
10   1.75   10.5   8.75
10   3.5   7.0   7.0
10   0.0   10.5   7.0
10   0.0   7.0   10.5
10   3.5   10.5   7.0
10   0.0   10.5   10.5
10   3.5   7.0   10.5
10   3.5   10.5   10.5
10   3.5   0.0   0.0
10   3.5   1.75   1.75
10   5.25   1.75   0.0
10   5.25   0.0   1.75
10   7.0   1.75   1.75
10   5.25   1.75   3.5
10   5.25   3.5   1.75
10   7.0   0.0   0.0
10   3.5   3.5   0.0
10   3.5   0.0   3.5
10   7.0   3.5   0.0
10   3.5   3.5   3.5
10   7.0   0.0   3.5
10   7.0   3.5   3.5
10   3.5   0.0   3.5
10   3.5   1.75   5.25
10   5.25   1.75   3.5
10   5.25   0.0   5.25
10   7.0   1.75   5.25
10   5.25   1.75   7.0
10   5.25   3.5   5.25
10   7.0   0.0   3.5
10   3.5   3.5   3.5
10   3.5   0.0   7.0
10   7.0   3.5   3.5
10   3.5   3.5   7.0
10   7.0   0.0   7.0
10   7.0   3.5   7.0
10   3.5   0.0   7.0
10   3.5   1.75   8.75
10   5.25   1.75   7.0
10   5.25   0.0   8.75
10   7.0   1.75   8.75
10   5.25   1.75   10.5
10   5.25   3.5   8.75
10   7.0   0.0   7.0
10   3.5   3.5   7.0
10   3.5   0.0   10.5
10   7.0   3.5   7.0
10   3.5   3.5   10.5
10   7.0   0.0   10.5
10   7.0   3.5   10.5
10   3.5   3.5   0.0
10   3.5   5.25   1.75
10   5.25   5.25   0.0
10   5.25   3.5   1.75
10   7.0   5.25   1.75
10   5.25   5.25   3.5
10   5.25   7.0   1.75
10   7.0   3.5   0.0
10   3.5   7.0   0.0
10   3.5   3.5   3.5
10   7.0   7.0   0.0
10   3.5   7.0   3.5
10   7.0   3.5   3.5
10   7.0   7.0   3.5
10   3.5   3.5   3.5
10   3.5   5.25   5.25
10   5.25   5.25   3.5
10   5.25   3.5   5.25
10   7.0   5.25   5.25
10   5.25   5.25   7.0
10   5.25   7.0   5.25
10   7.0   3.5   3.5
10   3.5   7.0   3.5
10   3.5   3.5   7.0
10   7.0   7.0   3.5
10   3.5   7.0   7.0
10   7.0   3.5   7.0
10   7.0   7.0   7.0
10   3.5   3.5   7.0
10   3.5   5.25   8.75
10   5.25   5.25   7.0
10   5.25   3.5   8.75
10   7.0   5.25   8.75
10   5.25   5.25   10.5
10   5.25   7.0   8.75
10   7.0   3.5   7.0
10   3.5   7.0   7.0
10   3.5   3.5   10.5
10   7.0   7.0   7.0
10   3.5   7.0   10.5
10   7.0   3.5   10.5
10   7.0   7.0   10.5
10   3.5   7.0   0.0
10   3.5   8.75   1.75
10   5.25   8.75   0.0
10   5.25   7.0   1.75
10   7.0   8.75   1.75
10   5.25   8.75   3.5
10   5.25   10.5   1.75
10   7.0   7.0   0.0
10   3.5   10.5   0.0
10   3.5   7.0   3.5
10   7.0   10.5   0.0
10   3.5   10.5   3.5
10   7.0   7.0   3.5
10   7.0   10.5   3.5
10   3.5   7.0   3.5
10   3.5   8.75   5.25
10   5.25   8.75   3.5
10   5.25   7.0   5.25
10   7.0   8.75   5.25
10   5.25   8.75   7.0
10   5.25   10.5   5.25
10   7.0   7.0   3.5
10   3.5   10.5   3.5
10   3.5   7.0   7.0
10   7.0   10.5   3.5
10   3.5   10.5   7.0
10   7.0   7.0   7.0
10   7.0   10.5   7.0
10   3.5   7.0   7.0
10   3.5   8.75   8.75
10   5.25   8.75   7.0
10   5.25   7.0   8.75
10   7.0   8.75   8.75
10   5.25   8.75   10.5
10   5.25   10.5   8.75
10   7.0   7.0   7.0
10   3.5   10.5   7.0
10   3.5   7.0   10.5
10   7.0   10.5   7.0
10   3.5   10.5   10.5
10   7.0   7.0   10.5
10   7.0   10.5   10.5
10   7.0   0.0   0.0
10   7.0   1.75   1.75
10   8.75   1.75   0.0
10   8.75   0.0   1.75
10   10.5   1.75   1.75
10   8.75   1.75   3.5
10   8.75   3.5   1.75
10   10.5   0.0   0.0
10   7.0   3.5   0.0
10   7.0   0.0   3.5
10   10.5   3.5   0.0
10   7.0   3.5   3.5
10   10.5   0.0   3.5
10   10.5   3.5   3.5
10   7.0   0.0   3.5
10   7.0   1.75   5.25
10   8.75   1.75   3.5
10   8.75   0.0   5.25
10   10.5   1.75   5.25
10   8.75   1.75   7.0
10   8.75   3.5   5.25
10   10.5   0.0   3.5
10   7.0   3.5   3.5
10   7.0   0.0   7.0
10   10.5   3.5   3.5
10   7.0   3.5   7.0
10   10.5   0.0   7.0
10   10.5   3.5   7.0
10   7.0   0.0   7.0
10   7.0   1.75   8.75
10   8.75   1.75   7.0
10   8.75   0.0   8.75
10   10.5   1.75   8.75
10   8.75   1.75   10.5
10   8.75   3.5   8.75
10   10.5   0.0   7.0
10   7.0   3.5   7.0
10   7.0   0.0   10.5
10   10.5   3.5   7.0
10   7.0   3.5   10.5
10   10.5   0.0   10.5
10   10.5   3.5   10.5
10   7.0   3.5   0.0
10   7.0   5.25   1.75
10   8.75   5.25   0.0
10   8.75   3.5   1.75
10   10.5   5.25   1.75
10   8.75   5.25   3.5
10   8.75   7.0   1.75
10   10.5   3.5   0.0
10   7.0   7.0   0.0
10   7.0   3.5   3.5
10   10.5   7.0   0.0
10   7.0   7.0   3.5
10   10.5   3.5   3.5
10   10.5   7.0   3.5
10   7.0   3.5   3.5
10   7.0   5.25   5.25
10   8.75   5.25   3.5
10   8.75   3.5   5.25
10   10.5   5.25   5.25
10   8.75   5.25   7.0
10   8.75   7.0   5.25
10   10.5   3.5   3.5
10   7.0   7.0   3.5
10   7.0   3.5   7.0
10   10.5   7.0   3.5
10   7.0   7.0   7.0
10   10.5   3.5   7.0
10   10.5   7.0   7.0
10   7.0   3.5   7.0
10   7.0   5.25   8.75
10   8.75   5.25   7.0
10   8.75   3.5   8.75
10   10.5   5.25   8.75
10   8.75   5.25   10.5
10   8.75   7.0   8.75
10   10.5   3.5   7.0
10   7.0   7.0   7.0
10   7.0   3.5   10.5
10   10.5   7.0   7.0
10   7.0   7.0   10.5
10   10.5   3.5   10.5
10   10.5   7.0   10.5
10   7.0   7.0   0.0
10   7.0   8.75   1.75
10   8.75   8.75   0.0
10   8.75   7.0   1.75
10   10.5   8.75   1.75
10   8.75   8.75   3.5
10   8.75   10.5   1.75
10   10.5   7.0   0.0
10   7.0   10.5   0.0
10   7.0   7.0   3.5
10   10.5   10.5   0.0
10   7.0   10.5   3.5
10   10.5   7.0   3.5
10   10.5   10.5   3.5
10   7.0   7.0   3.5
10   7.0   8.75   5.25
10   8.75   8.75   3.5
10   8.75   7.0   5.25
10   10.5   8.75   5.25
10   8.75   8.75   7.0
10   8.75   10.5   5.25
10   10.5   7.0   3.5
10   7.0   10.5   3.5
10   7.0   7.0   7.0
10   10.5   10.5   3.5
10   7.0   10.5   7.0
10   10.5   7.0   7.0
10   10.5   10.5   7.0
10   7.0   7.0   7.0
10   7.0   8.75   8.75
10   8.75   8.75   7.0
10   8.75   7.0   8.75
10   10.5   8.75   8.75
10   8.75   8.75   10.5
10   8.75   10.5   8.75
10   10.5   7.0   7.0
10   7.0   10.5   7.0
10   7.0   7.0   10.5
10   10.5   10.5   7.0
10   7.0   10.5   10.5
10   10.5   7.0   10.5
10   10.5   10.5   10.5
